<?xml version="1.0" encoding="UTF-8"?>

<!-- generated on 2026-05-24 14:26:59.775504 by Eclipse SUMO randomTrips.py v1_26_0+0000-fa7df22d7f1
<configuration>
    <net-file value="mp_nagar.net.xml"/>
    <route-file value="mp_nagar.rou.xml"/>
    <end value="3000.0"/>
    <period value="0.5"/>
</configuration>
-->

<!-- generated on 2026-05-24T14:26:57.119894+05:30 by Eclipse SUMO duarouter 1.26.0
<duarouterConfiguration xmlns:xsi="http://www.w3.org/2001/XMLSchema-instance" xsi:noNamespaceSchemaLocation="http://sumo.dlr.de/xsd/duarouterConfiguration.xsd">

    <input>
        <net-file value="mp_nagar.net.xml"/>
        <route-files value="trips.trips.xml"/>
    </input>

    <output>
        <output-file value="mp_nagar.rou.xml"/>
        <alternatives-output value="NUL"/>
    </output>

    <time>
        <begin value="0"/>
        <end value="3000.0"/>
    </time>

    <report>
        <no-warnings value="true"/>
        <ignore-errors value="true"/>
        <no-step-log value="true"/>
    </report>

</duarouterConfiguration>
-->

<routes xmlns:xsi="http://www.w3.org/2001/XMLSchema-instance" xsi:noNamespaceSchemaLocation="http://sumo.dlr.de/xsd/routes_file.xsd">
    <vehicle id="0" depart="0.00">
        <route edges="29214294#1 -367553560 29105916#13 29105918#0 29105918#1 29105918#2 29105918#3 29105918#4 29105918#5 29105918#6 29105918#8 367545992#7 375220453 365093486#3 365093486#4 365093486#5 375220451#0 375220451#1 375220451#3 375220451#7 959018846#1 959018846#2 959018846#3 958151027#0 958151027#1 958151027#2 958165565#6 958165565#7 958199552#0 958199552#1 958199552#2 958199552#3 958199552#4 958199552#5 958199552#6 375220441#1 375220441#3 375220441#4 375220441#5 375220441#6 375220441#7 375220441#8 28956316#0 28956316#1 28956316#2 28956316#3 -28956316#3"/>
    </vehicle>
    <vehicle id="1" depart="0.50">
        <route edges="-367405500 962500481#2 962500481#3 959759763#0 959759763#1 960094502#1 960094502#2 958194853#1 365093486#5 365093486#6 365093486#1 375220452#0 367545992#2 367545992#3 367545992#4 367546039#0 367546039#1 367546039#2 367546010 375220439#5-AddedOnRampEdge 375220439#5 375220440#2 375220440#2-AddedOffRampEdge 375220440#3 363110849#5 363110849#6 363110849#1 363110849#2 28733668#0 28733668#1 28733668#3-AddedOnRampEdge 28733668#3 374424967#1 374424967#2 374424967#3 374424970 1317499461 363109670#1 363109670#2 360551299#0 360551299#2 360551299#4 360551299#5-AddedOnRampEdge 360551299#5 1288259320#1 28671949#1 367553585 30070605#8 30070605#9 -30070621#1"/>
    </vehicle>
    <vehicle id="2" depart="1.00">
        <route edges="419466455#0 -367576175#11 -367576175#10 29049174#1 29049174#3 29049174#4 29049174#5 29049174#6 29049174#7 959759778#2 959759778#3 959759778#6 959759778#7 959759778#8 959759778#9 959759778#10 959759778#11 959759778#12 375075091#1 960094507#0 960094507#1 960094507#3 960094507#4 960094507#5 960094502#0 960094502#1 960094502#2 958194853#1 365093486#5 365093486#6 365093486#1 375220452#0 367545992#2 367545992#3 367545992#4 367546039#0 367546039#1 367546039#2 367546010 375220439#5-AddedOnRampEdge 375220439#5 375220440#2 375220440#2-AddedOffRampEdge 375220440#3 363110849#5 363110849#6 363110849#1 363110849#2 28733668#0 28733668#1 28733668#3-AddedOnRampEdge 28733668#3 374424967#1 374424967#2 374424967#3 374424970 1317499461 363109673#0 363109673#1 363109673#2 363109673#3 -29087291#6 -29087291#5 -29087291#3 -29087291#2 -29087291#0 -29105150 -29105146#0"/>
    </vehicle>
    <vehicle id="3" depart="1.50">
        <route edges="-958803682 360498493#6 -421263107#0 -367405618#0 367405475#1 367405475#3 28708656#11 374425584#1 374425584#2 374425584#3 374425584#4 374425584#5 360524191#0 360524191#1 360524191#2 360524191#3 360524191#4 360524191#5 360524191#6 360524191#7 360524191#8 360524191#9 958165565#4 958165565#5 958165565#6 958165565#7 958199552#0 958199552#1 958199552#2 958199552#3 -28966503#11 -28966503#10 -28966503#9 -28966503#7 -28966503#6 -28966503#5 -28966503#3 -28966503#2 -28966503#1"/>
    </vehicle>
    <vehicle id="4" depart="2.00">
        <route edges="-30070594#1 -30070594#0 -30070592#2 -30070592#0 1288259316#1 360551300#1 360551300#3 360551300#4 363109670#4 1317499460#0 1317499460#1 29087256#0 29087256#1 374424967#5 374424967#6 374424965#0 374424965#1-AddedOnRampEdge 374424965#1 374424965#3 374424965#4 374424965#7 363110849#4 363110849#5 28733674#0 28733674#1-AddedOnRampEdge 28733674#1 28733674#2 28733674#3 28733674#4 28733696#2 28733696#3-AddedOnRampEdge 28733696#3 28733696#4 374425584#5 360524191#0 360524191#1 360524191#2 360524191#3 360524191#4 360524191#5 360524191#6 360524191#7 360524191#8 360524191#9 958165565#4 958165565#5 958165565#6 958165565#7 958199552#0 958199552#1 958199552#2 958199552#3 28966503#13 28966503#14 28966534#0 28966562#0"/>
    </vehicle>
    <vehicle id="5" depart="2.50">
        <route edges="-28956452 -28956316#4 -28956316#3 -28956316#2 -28956316#1 -28956316#0 375220441#9 375220441#10 375220441#12 28708656#9 28708656#11 374425584#1 374425584#2 374425584#3 374425583#0 958145726#0 958145726#1 -360524199#1 -360524199#0 360524194#0 958145727#0 958145727#1 958145727#3 959018844#4 959018844#5 959018844#6 959018844#1 959018844#2 1117967586#0 -30069950#5 -30069950#4 -30069950#3 -30069950#2"/>
    </vehicle>
    <vehicle id="6" depart="3.00">
        <route edges="29258850#9 367405502 28966503#5 28966503#6 28966503#7 28966503#9 28966503#10 28966503#11 32555421#6 32555421#7 32555421#8 32555421#9 958165565#2 958100607#0 958100607#1 958100607#2 958100607#3 958100607#4 958100607#5 374425584#7 374425584#8 374425584#1 374425584#2 374425584#3 374425583#0 374425583#2 374425583#4 374425583#6 374425583#7 363110849#1 363110849#2 28733668#0 28733668#1 28733668#3-AddedOnRampEdge 28733668#3 374424967#1 374424967#2 374424967#3 374424970 1317499461 363109673#0 363109673#1 363109673#2 363109673#3 -29087291#6 29104978#0 29104978#1"/>
    </vehicle>
    <vehicle id="7" depart="3.50">
        <route edges="-30070605#4 -30070605#3 -30070605#2 -30070605#1 -30070592#2 -30070592#0 1288259316#1 360551300#1 360551300#3 360551300#4 363109670#4 1317499460#0 1317499460#1 29087256#0 29087256#1 374424967#5 374424967#6 374424965#0 374424965#1-AddedOnRampEdge 374424965#1 374424965#3 375496594#0 1453517982#1-AddedOnRampEdge 1453517982#1 1453517982#3 1453517982#4 1453517982#5 1453517982#6 1453517982#7 375220454#1 375220454#2 375220454#3 375220454#4 367545992#6 -29105918#8 -29106089#1 29106089#1"/>
    </vehicle>
    <vehicle id="8" depart="4.00">
        <route edges="367405602#1 -367405602#1 -367405602#0 958803685#1 360498493#3 360498493#4 360498493#5 360498493#6 -421263107#0 -367405618#0 367405475#1 367405475#3 28708656#11 374425584#1 374425584#2 374425584#3 374425584#4 374425584#5 360524191#0 360524191#1 360524191#2 360524191#3 360524191#4 360524191#5 360524191#6 360524191#7 360524191#8 360524191#9 958165565#4 958165564#0 958165564#1 959018846#5 959018846#6 959018846#7 958151025#0 958151025#2 958151025#2-AddedOffRampEdge 958151025#5 958151025#7 958151025#8-AddedOnRampEdge 958151025#8 958151025#10 365093486#1 365093486#2 365093486#3 958194852 -960094502#2 -960094502#1 -960094502#0 1263682006 1263682005#0 -1263682005#0"/>
    </vehicle>
    <vehicle id="9" depart="4.50">
        <route edges="367405590#2 -367405519#6 367405604#0 -367405484 -367405502 -29258850#9 -29258850#8 -29258850#7 -29258850#6 -29258850#5 -29258850#4 -29258850#3 -29258850#2 29258853#2 30187497#0 30187497#1 30187497#2"/>
    </vehicle>
    <vehicle id="10" depart="5.00">
        <route edges="-367576166#3 367576166#3 29214288#0 29214288#1 29214288#3 -29214288#3"/>
    </vehicle>
    <vehicle id="11" depart="5.50">
        <route edges="958823809#1 958823815#0 29049233 -1304431591#0 1304431592#0 1304431592#1 29049164#3 29049174#0 367576175#10 367576175#11 -419466455#1 -367576175#12"/>
    </vehicle>
    <vehicle id="12" depart="6.00">
        <route edges="-29105246#1 29105247#4 29105247#5 -29105242#4 29105235#3 -966113611#1 -966113611#0 363109672#2 363109672#3 363109672#4 363109672#5 363109672#6 363109672#7 363109670#2 363109670#3 363109670#4 1317499460#0 -29105364#1"/>
    </vehicle>
    <vehicle id="13" depart="6.50">
        <route edges="367576175#12 419466455#0 -367576175#11 -367576175#10 29049174#1 29049174#3 29049174#4 29049174#5 29049174#6 29049174#7 959759778#2 959759778#3 959759778#6 959759778#7 959759778#8 959759778#9 959759778#10 959759778#11 959759778#12 375075091#1 960094507#0 960094507#1 960094505#1 29105916#0 29105916#2 29105916#3 29105916#4 29105916#6 29105916#8 29105916#11 29105916#13 29105916#14 29105916#15 29105916#16 29105916#17 29105916#18 29214066#0"/>
    </vehicle>
    <vehicle id="14" depart="7.00">
        <route edges="367405594#0 367405571 29049164#11 29049164#12 29049164#13 958199552#3 958199552#4 958199552#5 958199552#6 375220441#1 375220441#3 375220441#4 375220441#5 375220441#6 375220441#7 375220441#8 375220441#9 375220441#10 375220441#12 28708656#9 -367405475#4 -367405475#2 367405618#0 421263107#0 -958803680 -360498493#5 360498493#5"/>
    </vehicle>
    <vehicle id="15" depart="7.50">
        <route edges="28996605#0 -28996605#0 28996602#3 -419170015 28708656#6 28708656#8 28708656#9 28708656#11 374425584#1 374425584#2 374425584#3 374425584#4 374425584#5 360524191#0 360524191#1 360524191#2 360524191#3 360524191#4 360524191#5 360524191#6 360524191#7 360524191#8 360524191#9 958165565#4 958165564#0 958165564#1 959018846#5 959018846#6 959018846#7 958151025#0 958151025#2 958151025#2-AddedOffRampEdge 958151025#5 958151025#7 958151025#8-AddedOnRampEdge 958151025#8 958151025#10 365093486#1 365093486#2 365093486#3 958194852 -960094502#2 -960094502#1 -960094502#0 1263682006 960094507#5"/>
    </vehicle>
    <vehicle id="16" depart="8.00">
        <route edges="367546140#4 -367546029 -30070594#0 -30070592#2 -30070592#0 1288259316#1 360551300#1 360551300#3 360551300#4 363109670#4 1317499460#0 1317499460#1 29087256#0 29087256#1 374424967#5 374424967#6 374424965#0 374424965#1-AddedOnRampEdge 374424965#1 374424965#3 375496594#0 1453517982#1-AddedOnRampEdge 1453517982#1 1453517982#3 1453517982#4 1453517982#5 1453517982#6 1453517982#7 375220454#1 375220454#2 375220454#3 375220454#4 367545992#6 -29105918#8 -29105918#6 -29105918#5 -29105918#4 -29105918#3 -29105918#2 -29105918#1 -29105918#0 -29105916#13 -29105916#11 -1304629235 -29214294#0 -29214301#0 29214288#5"/>
    </vehicle>
    <vehicle id="17" depart="8.50">
        <route edges="30070544#1 30070544#2 30070549#2 30070399#2 30070399#3 30070399#4 30070399#5 30070399#6 30070399#7 30070399#8 28733674#3 28733674#4 28733696#2 28733696#3-AddedOnRampEdge 28733696#3 28733696#4 374425584#5 360524191#0 360524191#1 360524191#2 360524191#3 360524191#4 360524191#5 360524191#6 -28966587#18 -28966587#16 -28966587#15 -28966587#14 -28966587#13 -28966587#12 -28966587#11 -28966587#10 -28966569#1"/>
    </vehicle>
    <vehicle id="18" depart="9.00">
        <route edges="-30187196#2 -30187196#1 32555417#7 32555417#8 32555417#9 959759777#1 959759778#1 959759778#2 959759778#3 29145802#0 29145802#1 29145802#3 29145802#4 29145802#5 29145802#7 29145802#8 29145802#9 29145802#10 29145802#11 29145802#12 32555422#0 32555422#1 32555422#2 958165565#7 958199552#0 1304431215 367405564#1 -367405531 -367405564#2"/>
    </vehicle>
    <vehicle id="19" depart="9.50">
        <route edges="-29087309#1 -29087309#0 29104967#0 29104967#1 363109672#7 363109670#2 363109670#3 363109670#4 1317499460#0 1317499460#1 29087256#0 29087256#1 374424967#5 374424967#6 374424965#0 374424965#1-AddedOnRampEdge 374424965#1 374424965#3 374424965#4 374424965#7 363110849#4 363110849#5 28733674#0 28733674#1-AddedOnRampEdge 28733674#1 28733674#2 28733674#3 28733674#4 958145722#0 958145722#0-AddedOffRampEdge 958182947 958073832#1 958073832#3 -32555960#5 -32555960#4"/>
    </vehicle>
    <vehicle id="20" depart="10.00">
        <route edges="-29105375#1 -29105375#0 966113602#8 -957785144#1 -29105486#5 -29105486#4 -29105486#3 -29105486#2 -29105486#0 360551300#1 360551300#3 360551300#4 363109670#4 1317499460#0 1317499460#1 29087256#0 29087256#1 374424967#5 374424967#6 374424965#0 374424965#1-AddedOnRampEdge 374424965#1 374424965#3 374424965#4 374424965#7 363110849#4 363110849#5 28733674#0 28733674#1-AddedOnRampEdge 28733674#1 28733674#2 28733674#3 28733674#4 28733696#2 28733696#3-AddedOnRampEdge 28733696#3 -360524195#1 -360524195#0 -958194862#4 -958194862#3 30070100#5 958812953 958812954 958812955#1 -367405508#2"/>
    </vehicle>
    <vehicle id="21" depart="10.50">
        <route edges="29214244#1 -29214244#1 960094507#4 960094507#5 960094502#0 960094502#1 960094502#2 958194853#1 365093486#5 375220451#0 375220451#1 375220451#3 375220451#7 959018846#1 959018846#2 959018846#3 958151027#0 958151027#1 958151027#2 958165565#6 958165565#7 958199552#0 958199552#1 958199552#2 958199552#3 -28966503#11 -28966503#10 -28966503#9 367405472#0 367405472#1 367405472#2 -29258850#9 -29258850#8 -419438902#3"/>
    </vehicle>
    <vehicle id="22" depart="11.00">
        <route edges="-419191879 1264018181#2 1264018181#3 1264018181#4 1264018181#5 360551300#4 363109670#4 1317499460#0 1317499460#1 29087256#0 29087256#1 374424967#5 374424967#6 374424965#0 374424965#1-AddedOnRampEdge 374424965#1 374424965#3 374424965#4 374424965#7 363110849#4 363110849#5 28733674#0 28733674#1-AddedOnRampEdge 28733674#1 28733674#2 -30070399#8 -30070399#7 -30070399#6 -30070399#5 -30070399#4"/>
    </vehicle>
    <vehicle id="23" depart="11.50">
        <route edges="-367405472#0 28966503#9 28966503#10 28966503#11 32555421#6 32555421#7 32555421#8 32555421#9 958165565#2 958165565#3 958165565#4 958165565#5 958165565#6 958165565#7 958199552#0"/>
    </vehicle>
    <vehicle id="24" depart="12.00">
        <route edges="29258850#1 -29258853#1 -29258853#0 367576201#14 367390308#1 367390308#2 -29258987#0 29258981#2 1079920950 32555417#2 32555417#3 32555417#4 32555417#7 32555417#8 32555417#9 959759777#1 959759778#1 959759778#2 959759778#3 959759778#6 959759778#7 959759778#8 959759778#9 959759778#10 959759778#11 959759778#12 375075091#1 375075091#2 375075091#3 29214370#0 29214370#2 29214370#3 29214370#4 29214370#5 29214370#7 960094510#0 960094510#1 960094510#2 960094510#3 960094510#6 960094510#7 960094510#8 32558462#2 29214084#0 29214084#1 29214084#2 29214084#3 29214084#4 -962258027#3 29214106#0"/>
    </vehicle>
    <vehicle id="25" depart="12.50">
        <route edges="-29258999#1 32555421#2 32555421#3 32555421#4 375220441#1 375220441#3 375220441#4 375220441#5 375220441#6 375220441#7 375220441#8 375220441#9 375220441#10 375220441#12 28708656#9 -367405475#4 -367405475#2 367405618#0 421263107#0 -958803680 -360498493#5 -360498493#4 -360498493#3 360498493#3"/>
    </vehicle>
    <vehicle id="26" depart="13.00">
        <route edges="-29258845#4 -29258845#3 29258850#6 29258850#7 29258850#8 29258850#9 367405502 -28966503#3 -28966503#2 -28966503#1 -28966503#0 32555417#3 32555417#4 32555417#7 32555417#8 32555417#9 959759777#1 959759778#1 959759778#2 959759778#3 29145802#0 29145802#1 -29214020 -419701123#1"/>
    </vehicle>
    <vehicle id="27" depart="13.50">
        <route edges="963855170 -28996598#1 -28996598#0 -419170015 28708656#6 28708656#8 28708656#9 28708656#11 374425584#1 374425584#2 374425584#3 374425583#0 374425583#2 -30070399#8 -30070399#7 -30070399#6 -30070399#5 -30070399#4 -30070399#3 -30070399#2 -30070399#1 -30070399#0 360551319#2 360551319#3 360551319#4 958823805 967713170#1 367546126#4 367546126#6 30053632#1 30053632#2 30053632#3 30053632#4 30053632#6 30053632#8"/>
    </vehicle>
    <vehicle id="28" depart="14.00">
        <route edges="29087291#6 363109672#3 363109672#4 363109672#5 363109672#6 363109672#7 363109670#2 363109670#3 363109670#4 1317499460#0 1317499460#1 29087256#0 29087256#1 374424967#5 374424967#6 374424965#0 374424965#1-AddedOnRampEdge 374424965#1 374424965#3 375496594#0 1453517982#1-AddedOnRampEdge 1453517982#1 967713171#0 -360551319#4 -360551319#3 -360551319#2 -360551319#1 -360551319#0 30070576"/>
    </vehicle>
    <vehicle id="29" depart="14.50">
        <route edges="367576148 367576203#2 367576204#2 29049164#7 29049164#8 29049164#9 29049164#10 -367405571 367405519#3 367405517#0 367405517#1 367405541#1"/>
    </vehicle>
    <vehicle id="30" depart="15.00">
        <route edges="-30187462#0 -419438900#1 -419438900#0 29258850#7 29258850#8 29258850#9 367405502 28966503#5 28966503#6 28966503#7 28966503#9 28966503#10 28966503#11 28966503#13 28966503#14 28966503#16 28966503#18 28966503#19 28966503#22 28966503#23 -28966503#23"/>
    </vehicle>
    <vehicle id="31" depart="15.50">
        <route edges="-367546082 1263650787#2 29087302#4 29087302#5 29087302#6 29087302#7 29087302#8 29087302#9 29087302#10 363109672#2 363109672#3 363109672#4 363109672#5 363109672#6 363109672#7 363109670#2 363109670#3 363109670#4 1317499460#0 1317499460#1 29087256#0 29087256#1 374424967#5 374424967#6 374424965#0 374424965#1-AddedOnRampEdge 374424965#1 374424965#3 374424965#4 374424965#7 363110849#4 363110849#5 28733674#0 28733674#1-AddedOnRampEdge 28733674#1 28733674#2 28733674#3 28733674#4 28733696#2 28733696#3-AddedOnRampEdge 28733696#3 28733696#4 374425584#5 360524191#0 360524191#1 360524191#2 360524191#3 360524191#4 360524191#5 360524191#6 360524191#7 360524191#8 360524191#9 958165565#4 958165565#5 958165565#6 958165565#7 958199552#0 958199552#1 958199552#2 958199552#3 -28966503#11 -28966503#10 -28966503#9 -28966503#7 -28966503#6 -28966503#5 -28966503#3 -419438902#6 -367405472#5 -367405472#4"/>
    </vehicle>
    <vehicle id="32" depart="16.00">
        <route edges="-30070413#2 30070413#2 30070413#3 30070413#4 -360551319#2 -360551319#1 -360551319#0 -958756325#4 -958756325#3 -958756325#2 958769395 958769393#1"/>
    </vehicle>
    <vehicle id="33" depart="16.50">
        <route edges="375220452#0 367545992#2 367545992#3 367545992#4 367546039#0 367546039#1 367546039#2 367546010 375220439#5-AddedOnRampEdge 375220439#5 967713170#1 367546126#4 -367546126#5"/>
    </vehicle>
    <vehicle id="34" depart="17.00">
        <route edges="29258999#3 -29258999#3 -29258999#2 -29258999#1 32555421#2 32555421#3 32555421#4 32555421#5 32555421#6 32555421#7 32555421#8 32555421#9 958165565#2 958165565#3 958165565#4 958165564#0 958165564#1 959018846#5 30069878 958194856#1 30069913#0 30069918#0 30069918#2 -958194854#1"/>
    </vehicle>
    <vehicle id="35" depart="17.50">
        <route edges="958073829#2 958073829#3 367405546 367405568#2 367405515#0 367405617#0 367405617#1 367405607#0 367405607#1 360498493#1 360498493#3 360498493#4 360498493#5 360498493#6 -421263107#0 -367405618#0 367405475#1 367405475#3 28708656#11 374425584#1 374425584#2 374425584#3 374425584#4 374425584#5 360524191#0 360524191#1 360524191#2 360524191#3 360524191#4 360524191#5 360524191#6 360524191#7 360524191#8 360524191#9 958165565#4 958165564#0 958165564#1 959018846#5 959018846#6 959018846#7 959018846#8 959018846#1 958151029 -32555428 -29145802#12 -29145802#11 -29145802#10 -29145802#9 -29145802#8 -29145802#7 -29145802#5 -29145802#4 -29145802#3 -29145802#2 -29145802#0 959759778#6 959759778#7 959759778#8 959759778#9 959759778#10 959759778#11 959759778#12 375075091#1 375075091#2 375075091#3 29214370#0 29214370#2 29214370#3 29214370#4 29214370#5 29214370#7 960094510#0 960094510#1 960094510#2 960094510#3 960094510#6 1304629238#0 1304629238#1"/>
    </vehicle>
    <vehicle id="36" depart="18.00">
        <route edges="-367405464#2 -367405464#1 -367405464#0 -367405555#1 -367405555#0 -32555422#1 -32555422#0 -29145802#12 -29145802#11 -29145802#10 -29145802#9 -29145802#8 -29145802#7 -29145802#5 -29145802#4 -29145802#3 -29145802#2 -29145802#0 959759778#6 -360287061 -360287070#0"/>
    </vehicle>
    <vehicle id="37" depart="18.50">
        <route edges="29087309#0 -29087309#0 29104967#0 29104967#1 363109672#7 363109670#2 363109670#3 363109670#4 1317499460#0 1317499460#1 29087256#0 29087256#1 374424967#5 374424967#6 374424965#0 374424965#1-AddedOnRampEdge 374424965#1 374424965#3 374424965#4 374424965#7 363110849#4 363110849#5 28733674#0 28733674#1-AddedOnRampEdge 28733674#1 28733674#2 28733674#3 28733674#4 28733696#2 28733696#3-AddedOnRampEdge 28733696#3 28733696#4 374425584#5 360524191#0 360524191#1 360524191#2 360524191#3 360524191#4 360524191#5 360524191#6 360524191#7 360524191#8 360524191#9 958165565#4 958165565#5 958165565#6 958165565#7 958199552#0 958199552#1 958199552#2 958199552#3 958199552#4 -29258845#9 -29258845#8 -29258845#7 -29258845#6 -29258845#4 -29258845#3 -29258845#2 -29258845#1 367576201#11 367390304#0 -367390373"/>
    </vehicle>
    <vehicle id="38" depart="19.00">
        <route edges="29105379#3 29105377#2 966113602#13 29105366#1 29105366#2 29105366#3 29105364#1 1317499460#1 29087256#0 29087256#1 374424967#5 374424967#6 374424965#0 374424965#1-AddedOnRampEdge 374424965#1 374424965#3 374424965#4 374424965#7 363110849#4 363110849#5 28733674#0 28733674#1-AddedOnRampEdge 28733674#1 28733674#2 28733674#3 958803702#0 958803702#1 958145726#1 -360524199#1 -360524199#0 360524194#0 -958194863#7 -958194863#6 -958194863#5 -958194863#4 -958194863#3 -958194863#2 -958194863#1 -958194863#0 958194860 958194858#5 958194861 -958194856#1 958194855 959018846#7 959018846#8 959018846#1 958151029 -32555428 -29145802#12 -29145802#11 -29145802#10 -29145802#9 -29145802#8 -29145802#7 -29145802#5 -29145802#4 -360287067#1 419701124#0 419701124#1"/>
    </vehicle>
    <vehicle id="39" depart="19.50">
        <route edges="-421267127 -367405508#0 -958812953 -30070100#7 -958194862#2 -958194862#0 958194859#1 958194858#3 958194857 958194863#0 958194863#1 958194863#2 958194863#3 958194863#4 958194863#5 958194863#6 958194863#7 1117967586#3 30070514#0 30070514#1 30070514#3 30070514#4 30070514#5 30070399#4 30070399#5 30070399#6 30070399#7 30070399#8 374425583#4 374425583#6 374425583#7 363110849#1 363110849#2 28733668#0 28733668#1 28733668#3-AddedOnRampEdge 28733668#3 374424967#1 374424967#2 374424967#3 374424970 1317499461 363109670#1 363109670#2 360551299#0 360551299#2 360551299#4 360551299#5-AddedOnRampEdge 360551299#5 -30070592#0"/>
    </vehicle>
    <vehicle id="40" depart="20.00">
        <route edges="967713171#0 -360551319#4 -360551319#3 -360551319#2 30070399#0 30070399#1 30070399#2 30070399#3 30070399#4 30070399#5 30070399#6 30070399#7 30070399#8 28733674#3 28733674#4 28733696#2 28733696#3-AddedOnRampEdge 28733696#3 28733696#4 374425584#5 360524191#0 360524191#1 360524191#2 360524191#3 360524191#4 360524191#5 360524191#6 -28966587#18 -28966587#16 -28966587#15 -28966587#14 -28966587#13 -28966587#12 -28966587#11 28966587#11"/>
    </vehicle>
    <vehicle id="41" depart="20.50">
        <route edges="-29105239#2 -29105246#2 29105235#2 29105235#3 -966113611#1 -966113611#0 363109672#2 363109672#3 363109672#4 363109672#5 363109672#6 363109672#7 363109670#2 363109670#3 363109670#4 1317499460#0 1317499460#1 29087256#0 29087256#1 374424967#5 374424967#6 374424965#0 374424965#1-AddedOnRampEdge 374424965#1 374424965#3 374424965#4 374424965#7 363110849#4 363110849#5 28733674#0 28733674#1-AddedOnRampEdge 28733674#1 28733674#2 28733674#3 28733674#4 28733696#2 28733696#3-AddedOnRampEdge 28733696#3 28733696#4 374425584#5 374425584#6 374425584#7 374947124#0 374947124#1 -375220441#12 -375220441#11 -375220441#9 -375220441#8 -375220441#7 28966577#0 28966577#2 28966577#3 -28966577#3"/>
    </vehicle>
    <vehicle id="42" depart="21.00">
        <route edges="-29105916#3 -29105916#2 -29105916#0 960094506#0 960094507#3 960094507#4 960094507#5 960094502#0 960094502#1 960094502#2 958194853#1 365093486#5 375220451#0 375220451#1 375220451#3 375220451#7 959018846#1 959018846#2 959018846#3 958151027#0 958151027#1 958151027#2 958165565#6 958165565#7 958199552#0 958199552#1 958199552#2 958199552#3 958199552#4 958199552#5 958199552#6 958199552#7 -367576201#20 -367576201#19 -367576201#18 -367576201#17 -367576201#16 29258850#0 29258850#1"/>
    </vehicle>
    <vehicle id="43" depart="21.50">
        <route edges="367405524#2 -367405564#0 958199552#1 958199552#2 -29049164#14 -29049164#12 -29049164#11 -29049164#10 -29049164#9 -29049164#8 -29049164#7 -29049164#5 -29049164#4 29049174#0 29049174#1 29049174#3 29049174#4 29049174#5 29049174#6 29049174#7 959759778#2 959759778#3 959759778#6 959759778#7 959759778#8 959759778#9 959759778#10 959759778#11 959759778#12 375075091#1 375075091#2 375075091#3 29214370#0 29214370#2 29214370#3 29214370#4 29214370#5 29214370#7 960094510#0 960094510#1 960094510#2 960094510#3 960094510#6 960094510#7 960094510#8 -960094510#8"/>
    </vehicle>
    <vehicle id="44" depart="22.00">
        <route edges="-29049164#4 29049164#4 29049164#5 29049164#7 29049164#8 29049164#9 29049164#10 29049164#11 29049164#12 29049164#13 958199552#3 958199552#4 958199552#5 958199552#6 375220441#1 375220441#3 375220441#4 375220441#5 375220441#6 375220441#7 375220441#8 375220441#9 375220441#10 375220441#12 28708656#9 -367405475#4 -367405475#2 367405618#0 421263107#0 421263107#1 -421263107#1 -421263107#0"/>
    </vehicle>
    <vehicle id="45" depart="22.50">
        <route edges="967713169#0 -30053904 30053839#6 30053624#3 30053624#6 30053624#7 967713171#0 -360551319#4 -360551319#3 -360551319#2 -360551319#1 -360551319#0 -959119212#0 958756324 959018847#4 959018847#5 959018847#6 958194845 -30070280#3 -30070280#2 -30070280#0 959018844#5 32555438#0 32555438#0-AddedOffRampEdge 32555438#2 -29213992#10 -419472546#0 -1304782084#3 -1304782084#2 -1304782084#1 -1304782084#0 -419472556#11 -419472556#10 -29049170#1 29049170#1"/>
    </vehicle>
    <vehicle id="46" depart="23.00">
        <route edges="960094489#0 960094489#1 960664460 360279447#2 360279447#3 360279447#4 360279447#5 360279447#8 360279447#9 -29049174#7 -29049174#6 -29049174#5 -29049174#4 -29049174#3 -29049174#1 -29049174#0 29049164#4 29049164#5 29049164#7 29049164#8 29049164#9 29049164#10 29049164#11 29049164#12 29049164#13 958199552#3 958199552#4 958199552#5 958199552#6 375220441#1 375220441#3 375220441#4"/>
    </vehicle>
    <vehicle id="47" depart="23.50">
        <route edges="-1304429111#1 -1304429111#0 29049164#13 958199552#3 958199552#4 958199552#5 958199552#6 958199552#7 958199552#8 419430141#0 419430141#1 -29258869#2 -29258869#1 -360279473#3 -360279473#2 360279473#2"/>
    </vehicle>
    <vehicle id="48" depart="24.00">
        <route edges="30069918#0 30069918#2 958194854#2 958194863#2 958194863#3 958194863#4 958194863#5 958194863#6 958194863#7 1117967586#3 30070514#0 30070514#1 30070514#3 30070514#4 30070514#5 30070399#4 30070399#5 30070399#6 30070399#7 30070399#8 374425583#4 374425583#6 374425583#7 363110849#1 363110849#2 28733668#0 28733668#1 28733668#3-AddedOnRampEdge 28733668#3 374424967#1 374424967#2 374424967#3 374424970 1317499461 363109673#0 363109673#1 363109673#2 -444005274#1 -367546030 29087291#5"/>
    </vehicle>
    <vehicle id="49" depart="24.50">
        <route edges="-367405471#2 -367405471#1 421263106 -367405610#1 -367405610#0 32555960#5 32555958#1 32555958#3 32555958#4 32555435#6 32555435#7 32555435#8 1453517989#0 1453517989#2 311215670#2 311215670#3 311215670#4 311215670#5 1508785786 1508785786-AddedOffRampEdge 375496586#0 28733668#3-AddedOnRampEdge 28733668#3 374424967#1 374424967#2 374424967#3 374424967#4 374424967#5 374424967#6 374424965#0 374424965#1-AddedOnRampEdge 374424965#1 -958775188#2 30053682#0"/>
    </vehicle>
    <vehicle id="50" depart="25.00">
        <route edges="-29105918#4 29105918#4 29105918#5 29105918#6 29105918#8 367545992#7 367545992#1 367545992#2 367545992#3 367545992#4 367546039#0 367546039#1 367546039#2 367546010 375220439#5-AddedOnRampEdge 375220439#5 375220440#2 375220440#2-AddedOffRampEdge 375220440#3 363110849#5 363110849#6 363110849#1 363110849#2 28733668#0 28733668#1 28733668#3-AddedOnRampEdge 28733668#3 374424967#1 374424967#2 374424967#3 374424970 1317499461 363109670#1 363109670#2 363109670#3 363109670#4 1317499460#0 -29105364#1 -29105366#3 -29105366#2 -29105366#1 -29105366#0 -966113602#4 -966113602#3 -966113602#2"/>
    </vehicle>
    <vehicle id="51" depart="25.50">
        <route edges="-966113602#1 29087302#0 29087302#1 29087302#2 29087302#4 29087302#5 29087302#6 29087302#7 29087302#8 29087302#9 29087302#10 363109672#2 363109672#3 363109672#4 363109672#5 363109672#6 363109672#7 363109670#2 363109670#3 363109670#4 1317499460#0 1317499460#1 29087256#0 29087256#1 374424967#5 374424967#6 374424965#0 374424965#1-AddedOnRampEdge 374424965#1 374424965#3 374424965#4 374424965#7 363110849#4 363110849#5 28733674#0 28733674#1-AddedOnRampEdge 28733674#1 28733674#2 28733674#3 28733674#4 28733696#2 28733696#3-AddedOnRampEdge 28733696#3 28733696#4 374425584#5 374425584#6 374425584#7 374947124#0 374947124#1 28708656#9 -367405475#4 -367405475#2 -367405475#0 958812967"/>
    </vehicle>
    <vehicle id="52" depart="26.00">
        <route edges="375220451#3 375220451#7 959018846#1 959018846#2 959018846#3 958151027#0 958151027#1 958151027#2 958165565#6 958165565#7 958199552#0 958199552#1 958199552#2 -29049164#14 -29049164#12 -29049164#11 -367405571 -367405519#1 367405582#0 367405582#1 367405543 -367405494#0 -367405461#0"/>
    </vehicle>
    <vehicle id="53" depart="26.50">
        <route edges="28733696#3-AddedOnRampEdge 28733696#3 28733696#4 374425584#5 374425584#6 374425584#7 374425584#8 374425584#1 374425584#2 374425584#3 374425583#0 374425583#2 374425583#4 374425583#6 374425583#7 363110849#1 363110849#2 28733668#0 28733668#1 28733668#3-AddedOnRampEdge 28733668#3 374424967#1 374424967#2 374424967#3 374424967#4 374424971#0 374424971#1 967713175#0 967713175#2 30053659#2 30053624#1 -30053839#6 -30053839#5"/>
    </vehicle>
    <vehicle id="54" depart="27.00">