<?xml version="1.0" encoding="UTF-8"?>

<!-- generated on 2026-06-07T01:10:34.232866+05:30 by Eclipse SUMO netedit 1.26.0
-->

<additional xmlns:xsi="http://www.w3.org/2001/XMLSchema-instance" xsi:noNamespaceSchemaLocation="http://sumo.dlr.de/xsd/additional_file.xsd">
    <!-- Shapes -->
    <poly id="po_0" type="Terrain" color="red" fill="0" layer="0.00" shape="-79.239933,-13.058399 -7.921062,-117.489603 311.995018,-126.149752 263.600069,161.672835 -30.844984,116.843830 -75.673989,56.732210 -76.183410,-21.718548"/>
    <poly id="po_1" type="Roadside" color="159,159,159" fill="1" layer="0.00" shape="-58.852662,-6.524370 161.931757,-8.738540 271.691346,-13.166881 274.538137,-24.870353 166.360097,-20.758322 -58.220042,-18.544152 -58.220042,-6.524370"/>
    <poly id="po_10" type="Residential" color="50,50,50" fill="1" layer="0.00" shape="71.582689,-21.061053 95.938564,-47.504574 144.650312,-49.244279 136.647668,-22.104876"/>
    <poly id="po_11" type="Residential" color="50,50,50" fill="1" layer="0.00" shape="-28.624337,25.563049 -28.972278,-4.359882 12.432709,-5.403705 11.736827,24.171285"/>
    <poly id="po_12" type="Wood" color="134,110,75" fill="1" layer="0.00" shape="116.815027,15.820700 116.467086,-6.447528 149.173546,-6.795469 148.129723,15.472759"/>
    <poly id="po_13" type="Wood" color="134,110,75" fill="1" layer="0.00" shape="23.566823,76.014503 12.432709,65.576272 20.087412,57.921568 33.657114,52.702452 48.270638,57.225686 49.662402,64.880389 48.618579,77.058327 46.530933,82.277442 37.832406,83.321266"/>
    <poly id="po_14" type="Wood" color="134,110,75" fill="1" layer="0.00" shape="-25.492867,41.568338 -40.106392,38.784810 -40.454333,37.045104 -40.454333,33.913635 -36.626981,31.825989 -26.884631,29.738342 -13.314930,28.346578 -9.835519,28.346578 5.125946,27.302755 7.561534,27.302755 9.301239,27.998637 14.520355,26.258932 18.347707,21.387757 20.087412,13.037171 20.783294,10.949525 24.958587,9.557761 27.046233,9.557761 37.832406,13.733053 41.311817,18.604228 38.180347,25.563049 27.394174,31.825989 21.131235,32.869812 14.172414,34.609517 3.386241,36.697163 -3.572580,36.697163 -7.051991,39.480692 -10.879342,41.568338 -18.881987,43.655985"/>
    <poly id="po_15" type="Wood" color="134,110,75" fill="1" layer="0.00" shape="-19.577869,-26.280169 -4.616403,-49.244279 44.791228,-45.764868 42.355640,-21.061053"/>
    <poly id="po_16" type="Wood" color="134,110,75" fill="1" layer="0.00" shape="123.425907,-60.030452 128.297082,-74.643976 154.392662,-88.213678 161.699424,-88.213678 171.093833,-74.296035 171.789715,-66.293391 171.789715,-62.466039 160.307660,-57.942805 142.562666,-60.030452"/>
    <poly id="po_17" type="Water" color="78,156,218" fill="1" layer="0.00" shape="64.971809,-46.460750 53.141813,-49.592220 52.793872,-55.159277 52.793872,-56.898982 51.054167,-63.161921 49.662402,-63.509862 44.443286,-63.509862 47.226815,-70.816625 47.574756,-72.208389 50.358285,-76.383682 53.837695,-79.167210 59.056811,-80.906915 69.147102,-81.254857 75.062100,-81.602798 80.281216,-70.120743 83.412685,-69.076919 83.760626,-79.167210 85.152391,-79.515151 85.500332,-66.293391 85.500332,-61.074275 78.541511,-56.898982 75.410041,-54.463395 71.930630,-50.983984 68.799161,-48.896338 68.451220,-48.896338"/>
    <poly id="po_18" type="Water" color="78,156,218" fill="1" layer="0.00" shape="90.371507,71.143329 86.544155,72.535093 80.977098,73.230975 76.105923,76.710385 76.105923,76.710385 66.711514,60.009215 66.711514,57.573627 68.451220,53.398334 78.193569,51.310688 85.152391,49.570983 91.067389,46.439513 92.807094,45.743631 107.420619,42.960103 117.858850,44.003926 119.598556,45.395690 119.946497,47.135395 119.598556,52.354511 103.593267,63.140684 100.461797,64.880389 95.938564,65.924213"/>
    <poly id="po_19" type="Water" color="78,156,218" fill="1" layer="0.00" shape="246.249102,-29.063697 225.372639,-30.107520 218.065876,-33.586931 217.717935,-39.153988 221.197346,-45.068986 233.027342,-48.548397 240.334104,-56.551041 248.336749,-63.857803 252.164100,-68.728978 256.339393,-66.641332 257.383216,-59.682511 259.122922,-46.460750 260.862627,-40.197811 256.339393,-33.586931 251.120277,-31.151344"/>
    <poly id="po_2" type="Roadside" color="159,159,159" fill="1" layer="0.00" shape="-57.587422,57.686571 -59.485283,57.686571 -66.127794,-11.269021 -62.332073,-20.758322 9.470310,-103.631557 11.051860,-103.947867 134.412782,-105.213107 280.231718,-113.437169 292.251500,-109.008828 293.516740,-105.529417 286.241609,-18.227842 282.445888,-12.534261 238.478790,38.707968 228.040558,117.469172 221.081737,124.744303 59.130988,111.775591 52.488477,109.877731 -55.056942,64.645393 -42.404540,58.002882 61.661469,101.021049 215.704466,113.989761 227.407938,37.759038 229.305799,32.065457 273.272896,-20.442012 280.231718,-99.835836 276.435997,-102.682627 132.198611,-95.723806 15.796511,-93.825945 -55.689562,-10.952711 -49.679671,56.105021 -46.832880,60.217052 -54.740632,64.012773 -59.168973,56.421331"/>
    <poly id="po_20" type="Office" color="218,86,77" fill="1" layer="0.00" shape="166.918540,24.867167 167.266481,-6.099587 256.687334,-9.926939 228.156167,27.302755"/>
    <poly id="po_21" type="Office" color="218,86,77" fill="1" layer="0.00" shape="214.586466,99.326555 172.485597,42.612161 222.241169,44.003926"/>
    <poly id="po_3" type="Roadside" color="159,159,159" fill="1" layer="0.00" shape="-40.822989,62.431222 55.651578,43.768929 156.870796,40.289518 231.203659,41.238449 232.468899,30.167597 155.921866,28.586046 53.437407,31.432837 -51.261221,53.574541"/>
    <poly id="po_4" type="Roadside" color="159,159,159" fill="1" layer="0.00" shape="140.738983,-98.570596 61.345159,-11.901641 64.824569,103.867840 53.753717,103.235220 50.274307,34.595937 50.906927,-14.432121 53.437407,-18.860462 127.453961,-98.254286"/>
    <poly id="po_5" type="Roadside" color="159,159,159" fill="1" layer="0.00" shape="220.132807,110.194041 218.867567,107.030940 163.196997,32.065457 162.880687,-10.952711 283.394818,-98.570596 274.221827,-106.794658 151.809835,-16.962602 152.442455,38.391658 212.225056,115.571312"/>
    <poly id="po_6" type="Roadside" color="159,159,159" fill="1" layer="0.00" shape="69.252910,104.816770 156.238176,42.187379 144.218394,38.707968 61.977779,99.123189"/>
    <poly id="po_7" type="Residential" color="50,50,50" fill="1" layer="0.00" shape="63.478355,17.458715 62.432702,-5.545652 110.009917,-6.591306 111.316983,16.935889"/>
    <poly id="po_8" type="Residential" color="50,50,50" fill="1" layer="0.00" shape="-11.024427,-59.135373 10.411461,-83.969633 48.316385,-83.446807 31.324523,-49.985908"/>
    <poly id="po_9" type="Residential" color="50,50,50" fill="1" layer="0.00" shape="107.420619,103.153906 144.650312,70.447446 163.091189,107.329199"/>
</additional>
