<?xml version="1.0" encoding="UTF-8"?>

<!-- generated on 2026-06-07T04:53:38.247297+05:30 by Eclipse SUMO netedit 1.26.0
-->

<additional xmlns:xsi="http://www.w3.org/2001/XMLSchema-instance" xsi:noNamespaceSchemaLocation="http://sumo.dlr.de/xsd/additional_file.xsd">
    <!-- Shapes -->
    <poly id="po_0" type="Terrain" color="red" fill="0" layer="0.00" shape="-151.080656,2596.901031 219.157991,685.012933 5147.580643,351.191202 3739.459885,3470.907018 -90.385796,2651.526405"/>
</additional>
