<?xml version="1.0" encoding="UTF-8"?>

<!-- generated on 2026-06-07T01:02:04.225264+05:30 by Eclipse SUMO netedit 1.26.0
-->

<routes xmlns:xsi="http://www.w3.org/2001/XMLSchema-instance" xsi:noNamespaceSchemaLocation="http://sumo.dlr.de/xsd/routes_file.xsd">
    <!-- Vehicles, persons and containers (sorted by depart) -->
    <trip id="t_0" depart="0.00" from="-E11" to="-E15"/>
</routes>
