<?xml version="1.0" encoding="UTF-8"?>

<!-- generated on 2026-06-06T18:09:22.576511+05:30 by Eclipse SUMO netedit 1.26.0
-->

<additional xmlns:xsi="http://www.w3.org/2001/XMLSchema-instance" xsi:noNamespaceSchemaLocation="http://sumo.dlr.de/xsd/additional_file.xsd">
    <!-- Shapes -->
    <poly id="po_0" type="Roadside" color="172,172,172" fill="1" layer="0.00" shape="3485.640224,1569.190828"/>
    <poly id="po_1" type="Terrain" color="red" fill="0" layer="0.00" shape="-235.807046,2780.432889 92.750768,736.073151 6098.057497,-276.980111 3487.848189,4550.994447 -400.085954,2579.647557"/>
    <poly id="po_2" type="Roadside" color="172,172,172" fill="1" layer="0.00" shape="2716.901923,2172.862401 2712.471837,2159.572143 2778.923127,1946.928016 2810.566598,1961.484013 2801.706426,1994.393223 2834.615637,2000.089048 2842.842939,1977.305748 2854.867458,1984.267312 2821.325379,2074.767640 2797.909210,2062.743121 2789.049038,2082.994943 2814.363815,2089.323637 2796.643471,2132.358758 2751.709742,2168.432315 2739.052353,2167.166577 2712.471837,2172.229532"/>
    <poly id="po_3" type="Roadside" color="172,172,172" fill="1" layer="0.00" shape="2644.121939,2195.012831 2103.018578,2217.163261 2103.018578,2208.303089 2673.233933,2177.292487 2644.121939,2195.012831"/>
    <poly id="po_4" type="Roadside" color="172,172,172" fill="1" layer="0.00" shape="2730.192181,2192.481354 2723.863487,2182.355443 2753.608350,2177.292487 2801.073557,2148.180494 2813.730945,2129.194411 2865.626239,1988.064529 2914.990054,2012.746436 2900.434057,2041.858430 2881.447974,2065.907468 2865.626239,2099.449548 2825.755465,2127.928672 2824.489726,2149.446233 2818.161031,2165.900838 2833.982767,2178.558226 2899.168318,2176.659618 2919.420140,2174.761010 2921.951618,2169.698054 2929.546051,2165.267968 2934.609006,2157.040666 2950.430742,2127.295803 2954.227958,2130.460150 2946.633525,2197.544309 2728.293573,2192.481354"/>
    <poly id="po_5" type="Roadside" color="172,172,172" fill="1" layer="0.00" shape="2697.501357,2234.682432 2688.229412,2232.974442 2691.157394,2217.358534 2768.076867,2214.857866 2768.076867,2217.715773 2711.275978,2219.501964 2694.485779,2235.577687"/>
    <poly id="po_6" type="Roadside" color="172,172,172" fill="1" layer="0.00" shape="2689.841681,2247.366551 2698.772638,2244.508645 2706.631881,2234.505972 2713.062170,2225.575015 2719.492459,2223.074347 2782.723637,2219.859202 2783.438114,2233.791496 2751.643906,2235.577687 2727.351702,2248.081028 2689.127204,2248.081028 2711.275978,2304.524678 2722.350366,2296.665435 2713.419408,2275.231138 2721.278651,2264.513989 2739.855042,2239.864547"/>
    <poly id="po_7" type="Roadside" color="172,172,172" fill="1" layer="0.00" shape="2674.837673,2275.945614 2683.411392,2273.444946 2671.265290,2247.366551 2663.048809,2234.863211 2651.974422,2225.217777 2649.473754,2234.148734 2624.824312,2238.435594 2619.465737,2253.796840 2641.614511,2250.938934 2657.690234,2254.511317 2665.906715,2263.799512 2676.266626,2275.231138"/>
    <poly id="po_8" type="Roadside" color="172,172,172" fill="1" layer="0.00" shape="2667.692907,2239.150070 2663.763285,2227.718445 2649.830992,2220.216441 2650.902707,2218.073011 2670.193575,2217.001296 2671.979766,2239.150070"/>
    <poly id="po_9" type="Roadside" color="172,172,172" fill="1" layer="0.00" shape="2558.735227,2240.579023 2611.963733,2240.579023 2617.679546,2232.719781 2636.970413,2229.861875 2641.614511,2224.860539 2638.756605,2224.146062 2608.391350,2224.860539 2427.628774,2232.362543 2444.061735,2255.225793"/>
</additional>
